test/fixtures/synthetic_v35_duplicate_transformer_names.raw
@!IC,SBASE,REV,XFRRAT,NXFRAT,BASFRQ
0,  100.00, 35,     0,     1, 60.00
Synthetic fictional v35 case: two 2W transformer records between the SAME buses 201-202 with the SAME circuit id
A third transformer 203-204 shares the bus names TAP/LOW but read_bus! already suffixes repeated names, so it does not collide
0 / END OF SYSTEM-WIDE DATA, BEGIN BUS DATA
@!   I,'NAME        ', BASKV, IDE,AREA,ZONE,OWNER, VM,        VA,    NVHI,   NVLO,   EVHI,   EVLO
     1,'SRC         ', 100.0000,3,   1,   1,   1,1.00000,   0.0000,1.10000,0.90000,1.10000,0.90000
   201,'TAP         ', 100.0000,1,   1,   1,   1,1.00000,   0.0000,1.10000,0.90000,1.10000,0.90000
   202,'LOW         ',  20.0000,1,   1,   1,   1,1.00000,   0.0000,1.10000,0.90000,1.10000,0.90000
   203,'TAP         ', 100.0000,1,   1,   1,   1,1.00000,   0.0000,1.10000,0.90000,1.10000,0.90000
   204,'LOW         ',  20.0000,1,   1,   1,   1,1.00000,   0.0000,1.10000,0.90000,1.10000,0.90000
0 / END OF BUS DATA, BEGIN LOAD DATA
   202,'1 ',   1,   1,   1,     5.000,     1.000,     0.000,     0.000,     0.000,     0.000,   1,    1,  0,     0.000,     0.000,    0,'           V'
   204,'1 ',   1,   1,   1,     4.000,     0.800,     0.000,     0.000,     0.000,     0.000,   1,    1,  0,     0.000,     0.000,    0,'           V'
0 / END OF LOAD DATA, BEGIN FIXED SHUNT DATA
0 / END OF FIXED SHUNT DATA, BEGIN GENERATOR DATA
     1,'1 ',    10.000,     0.000,    20.000,   -20.000,1.00000,   0,   0,   100.000, 0.00000E+0, 1.00000E-1, 0.00000E+0, 0.00000E+0,1.00000,1,  100.0,   120.000,     0.000, 0,1,1.0000
0 / END OF GENERATOR DATA, BEGIN BRANCH DATA
     1,   201,'1 ', 1.00000E-02, 1.00000E-01,0.02000,'LINE_1_201                              ', 500.00, 500.00, 500.00,   0.00,   0.00,   0.00,   0.00,   0.00,   0.00,   0.00,   0.00,   0.00, 0.00000, 0.00000, 0.00000, 0.00000,1,1,  1.00,   1,1.0000
     1,   203,'2 ', 1.00000E-02, 1.00000E-01,0.02000,'LINE_1_203                              ', 500.00, 500.00, 500.00,   0.00,   0.00,   0.00,   0.00,   0.00,   0.00,   0.00,   0.00,   0.00, 0.00000, 0.00000, 0.00000, 0.00000,1,1,  1.00,   1,1.0000
0 / END OF BRANCH DATA, BEGIN SYSTEM SWITCHING DEVICE DATA
0 / END OF SYSTEM SWITCHING DEVICE DATA, BEGIN TRANSFORMER DATA
201, 202, 0, '1 ', 1, 1, 1, 0.0, 0.0, 2, 'XFMR_A      ', 1, 1, 1.0, 0, 1.0, 0, 1.0, 0, 1.0, '            '
0.01, 0.05, 100.0
1.0, 0.0, 0.0, 40.0, 40.0, 40.0, 0.0, 0.0, 0.0, 0.0, 0.0, 0.0, 0.0, 0.0, 0.0, 0, 0, 0, 1.1, 0.9, 1.1, 0.9, 33, 0, 0.0, 0.0, 0.0
1.0, 0.0
201, 202, 0, '1 ', 1, 1, 1, 0.0, 0.0, 2, 'XFMR_B      ', 1, 1, 1.0, 0, 1.0, 0, 1.0, 0, 1.0, '            '
0.02, 0.06, 100.0
1.0, 0.0, 0.0, 30.0, 30.0, 30.0, 0.0, 0.0, 0.0, 0.0, 0.0, 0.0, 0.0, 0.0, 0.0, 0, 0, 0, 1.1, 0.9, 1.1, 0.9, 33, 0, 0.0, 0.0, 0.0
1.0, 0.0
203, 204, 0, '1 ', 1, 1, 1, 0.0, 0.0, 2, 'XFMR_C      ', 1, 1, 1.0, 0, 1.0, 0, 1.0, 0, 1.0, '            '
0.01, 0.05, 100.0
1.0, 0.0, 0.0, 40.0, 40.0, 40.0, 0.0, 0.0, 0.0, 0.0, 0.0, 0.0, 0.0, 0.0, 0.0, 0, 0, 0, 1.1, 0.9, 1.1, 0.9, 33, 0, 0.0, 0.0, 0.0
1.0, 0.0
0 / END OF TRANSFORMER DATA, BEGIN AREA DATA
0 / END OF AREA DATA, BEGIN TWO-TERMINAL DC DATA
0 / END OF TWO-TERMINAL DC DATA, BEGIN VSC DC LINE DATA
0 / END OF VSC DC LINE DATA, BEGIN IMPEDANCE CORRECTION DATA
0 / END OF IMPEDANCE CORRECTION DATA, BEGIN MULTI-TERMINAL DC DATA
0 / END OF MULTI-TERMINAL DC DATA, BEGIN MULTI-SECTION LINE DATA
0 / END OF MULTI-SECTION LINE DATA, BEGIN ZONE DATA
0 / END OF ZONE DATA, BEGIN INTER-AREA TRANSFER DATA
0 / END OF INTER-AREA TRANSFER DATA, BEGIN OWNER DATA
0 / END OF OWNER DATA, BEGIN FACTS DEVICE DATA
0 / END OF FACTS DEVICE DATA, BEGIN SWITCHED SHUNT DATA
0 / END OF SWITCHED SHUNT DATA, BEGIN GNE DATA
0 / END OF GNE DATA, BEGIN INDUCTION MACHINE DATA
0 / END OF INDUCTION MACHINE DATA, BEGIN SUBSTATION DATA
0 / END OF SUBSTATION DATA
Q
